Version 4
SHEET 1 1112 692
WIRE 64 -256 -208 -256
WIRE 256 -256 144 -256
WIRE -208 -208 -208 -256
WIRE -208 -96 -208 -128
WIRE -48 -16 -224 -16
WIRE -224 0 -224 -16
WIRE 160 48 16 48
WIRE -544 80 -544 32
WIRE -48 80 -48 -16
WIRE 64 80 -48 80
WIRE 160 80 160 48
WIRE -224 96 -224 80
WIRE -224 96 -272 96
WIRE 16 96 16 48
WIRE 16 96 -48 96
WIRE 256 112 256 -256
WIRE -272 128 -272 96
WIRE -48 144 -48 96
WIRE -32 144 -48 144
WIRE 64 144 48 144
WIRE 320 144 288 144
WIRE 336 144 320 144
WIRE -544 176 -544 160
WIRE -544 176 -592 176
WIRE 432 176 400 176
WIRE 496 176 432 176
WIRE -592 192 -592 176
WIRE 64 208 -32 208
WIRE 432 224 432 176
WIRE -544 240 -544 176
WIRE 160 240 160 208
WIRE 496 240 496 176
WIRE 608 240 496 240
WIRE 736 240 672 240
WIRE -224 256 -224 96
WIRE 320 272 320 144
WIRE 736 272 736 240
WIRE -544 368 -544 320
WIRE -224 368 -224 336
WIRE -32 368 -32 208
WIRE -32 368 -224 368
WIRE 432 368 432 304
WIRE -224 400 -224 368
WIRE 320 400 320 352
WIRE 736 416 736 352
WIRE -224 560 -224 480
WIRE -224 672 -224 640
FLAG -592 192 0
FLAG -544 32 +5V
FLAG -544 368 -5V
FLAG 160 48 +5V
FLAG 160 240 -5V
FLAG -224 672 0
FLAG -272 128 0
FLAG -208 -96 0
FLAG 432 368 -5V
FLAG 736 416 0
FLAG 320 400 0
SYMBOL Propia\\LM13700 128 64 R0
SYMATTR InstName U1
SYMBOL voltage -544 64 R0
WINDOW 123 0 0 Left 0
WINDOW 39 0 0 Left 0
SYMATTR InstName V1
SYMATTR Value 15
SYMBOL voltage -544 224 R0
WINDOW 123 0 0 Left 0
WINDOW 39 0 0 Left 0
SYMATTR InstName V2
SYMATTR Value 15
SYMBOL res 304 256 R0
SYMATTR InstName R1
SYMATTR Value 30k
SYMBOL res 416 208 R0
SYMATTR InstName R2
SYMATTR Value 10k
SYMBOL voltage -224 544 R0
WINDOW 123 0 0 Left 0
WINDOW 39 0 0 Left 0
SYMATTR InstName V3
SYMATTR Value SINE(0 1 5 0 0 0 500)
SYMBOL res -240 -16 R0
SYMATTR InstName R5
SYMATTR Value 500
SYMBOL res 64 128 R90
WINDOW 0 0 56 VBottom 2
WINDOW 3 32 56 VTop 2
SYMATTR InstName R6
SYMATTR Value 13k
SYMBOL voltage -208 -224 R0
WINDOW 123 0 0 Left 0
WINDOW 39 0 0 Left 0
SYMATTR InstName V4
SYMATTR Value PULSE(0 10 0 10 0 0 10)
SYMBOL res 160 -272 R90
WINDOW 0 0 56 VBottom 2
WINDOW 3 32 56 VTop 2
SYMATTR InstName R7
SYMATTR Value 30k
SYMBOL res -240 240 R0
SYMATTR InstName R8
SYMATTR Value 500
SYMBOL cap 672 224 R90
WINDOW 0 0 32 VBottom 2
WINDOW 3 32 32 VTop 2
SYMATTR InstName C1
SYMATTR Value 100µ
SYMBOL res 720 256 R0
SYMATTR InstName R4
SYMATTR Value 100k
SYMBOL res -240 384 R0
SYMATTR InstName R9
SYMATTR Value 10k
TEXT -616 520 Left 2 !.tran 20
TEXT -616 552 Left 2 !.lib lm13700.sub
