Version 4
SHEET 1 1112 692
WIRE 128 -448 -144 -448
WIRE 128 -384 128 -448
WIRE -288 -352 -384 -352
WIRE -144 -352 -144 -448
WIRE -144 -352 -208 -352
WIRE -48 -352 -144 -352
WIRE 64 -336 16 -336
WIRE -384 -320 -384 -352
WIRE -48 -320 -96 -320
WIRE -96 -288 -96 -320
WIRE 128 -256 128 -288
WIRE 256 -256 128 -256
WIRE -384 -208 -384 -240
WIRE 256 -160 256 -256
WIRE -48 -16 -272 -16
WIRE -272 0 -272 -16
WIRE 160 48 16 48
WIRE -544 80 -544 32
WIRE -48 80 -48 -16
WIRE 64 80 -48 80
WIRE 160 80 160 48
WIRE 16 96 16 48
WIRE 16 96 -48 96
WIRE 256 112 256 -80
WIRE -272 128 -272 80
WIRE -48 144 -48 96
WIRE -32 144 -48 144
WIRE 64 144 48 144
WIRE 320 144 288 144
WIRE -544 176 -544 160
WIRE -544 176 -592 176
WIRE -592 192 -592 176
WIRE -224 192 -272 192
WIRE 64 208 -32 208
WIRE -544 240 -544 176
WIRE -272 240 -272 192
WIRE 160 240 160 208
WIRE -224 256 -224 192
WIRE 320 272 320 144
WIRE -544 368 -544 320
WIRE -224 368 -224 336
WIRE -32 368 -32 208
WIRE -32 368 -224 368
WIRE -224 400 -224 368
WIRE 320 400 320 352
WIRE -224 560 -224 480
WIRE -224 672 -224 640
FLAG -592 192 0
FLAG -544 32 +5V
FLAG -544 368 -5V
FLAG 160 48 +5V
FLAG 160 240 -5V
FLAG -224 672 0
FLAG -272 128 0
FLAG 320 400 0
FLAG -272 240 0
FLAG -96 -288 0
FLAG -384 -208 0
SYMBOL Propia\\LM13700 128 64 R0
SYMATTR InstName U1
SYMBOL voltage -544 64 R0
WINDOW 123 0 0 Left 0
WINDOW 39 0 0 Left 0
SYMATTR InstName V1
SYMATTR Value 15
SYMBOL voltage -544 224 R0
WINDOW 123 0 0 Left 0
WINDOW 39 0 0 Left 0
SYMATTR InstName V2
SYMATTR Value 15
SYMBOL res 304 256 R0
SYMATTR InstName R1
SYMATTR Value 100k
SYMBOL voltage -224 544 R0
WINDOW 123 0 0 Left 0
WINDOW 39 0 0 Left 0
SYMATTR InstName V3
SYMATTR Value SINE(0 0.5 20 0 0 0 500)
SYMBOL res -288 -16 R0
SYMATTR InstName R5
SYMATTR Value 660
SYMBOL res 64 128 R90
WINDOW 0 0 56 VBottom 2
WINDOW 3 32 56 VTop 2
SYMATTR InstName R6
SYMATTR Value 15k
SYMBOL res -240 240 R0
SYMATTR InstName R8
SYMATTR Value 2k
SYMBOL res -240 384 R0
SYMATTR InstName R9
SYMATTR Value 1k
SYMBOL OpAmps\\opamp -16 -400 R0
SYMATTR InstName U2
SYMBOL res -192 -368 R90
WINDOW 0 0 56 VBottom 2
WINDOW 3 32 56 VTop 2
SYMATTR InstName R2
SYMATTR Value 33k
SYMBOL voltage -384 -336 R0
WINDOW 123 0 0 Left 0
WINDOW 39 0 0 Left 0
SYMATTR InstName V4
SYMATTR Value PULSE(0 3.3 0 20 1n)
SYMBOL res 240 -176 R0
SYMATTR InstName R3
SYMATTR Value 1
SYMBOL pnp 64 -288 M180
SYMATTR InstName Q1
TEXT -616 520 Left 2 !.tran 20
TEXT -616 552 Left 2 !.lib lm13700.sub
TEXT 304 -336 Left 2 !.lib opamp.sub
